Version 4
SHEET 1 880 680
WIRE 352 -16 224 -16
WIRE 656 -16 432 -16
WIRE 144 64 0 64
WIRE 224 64 224 -16
WIRE 224 64 208 64
WIRE 272 64 224 64
WIRE 352 64 336 64
WIRE 528 64 352 64
WIRE 656 80 656 -16
WIRE 656 80 592 80
WIRE 688 80 656 80
WIRE 528 96 496 96
WIRE 352 112 352 64
WIRE 0 144 0 64
WIRE 496 160 496 96
WIRE 576 160 496 160
WIRE 656 160 656 80
WIRE 352 224 352 192
FLAG 352 224 0
FLAG 656 80 Vo
IOPIN 656 80 Out
FLAG 0 224 0
FLAG 496 240 0
SYMBOL voltage 0 128 R0
WINDOW 123 24 124 Left 2
WINDOW 39 0 0 Left 0
SYMATTR InstName V1
SYMATTR Value SINE(0 1 60)
SYMATTR Value2 AC 1
SYMBOL cap 208 48 R90
WINDOW 0 0 32 VBottom 2
WINDOW 3 32 32 VTop 2
SYMATTR InstName C1
SYMATTR Value 0.443e-12
SYMBOL cap 336 48 R90
WINDOW 0 0 32 VBottom 2
WINDOW 3 32 32 VTop 2
SYMATTR InstName C2
SYMATTR Value 220e-12
SYMBOL res 448 -32 R90
WINDOW 0 0 56 VBottom 2
WINDOW 3 32 56 VTop 2
SYMATTR InstName R1
SYMATTR Value 3419.02
SYMBOL res 336 96 R0
SYMATTR InstName R2
SYMATTR Value 20000
SYMBOL Opamps\\opamp 560 144 M180
SYMATTR InstName U1
SYMATTR SpiceLine2 GBW=100G
SYMBOL res 480 144 R0
SYMATTR InstName R3
SYMATTR Value 10000
SYMBOL res 672 144 R90
WINDOW 0 0 56 VBottom 2
WINDOW 3 32 56 VTop 2
SYMATTR InstName R4
SYMATTR Value 1403.30
TEXT -34 290 Left 2 !.ac dec 100 1e7 1e3
TEXT 408 304 Left 2 !.lib opamp.sub
